omf/scratch/voltdumpDebug/voltdump6am.csv
# voltdump6am.csv run at 2000-01-01 00:06:00 PST on 6 nodes
node_name,voltA_real,voltA_imag,voltB_real,voltB_imag,voltC_real,voltC_imag
n650,2401.777100,0.000000,-1200.888600,-2080.000000,-1200.888600,2080.000000
n630,2416.788177,0.000007,-1208.394133,-2092.999978,-1208.394154,2093.000000
tn_1,120.749276,-0.001683,120.749408,-0.001632,0.000000,0.000000
tn_2,-60.376098,-104.571100,-60.376120,-104.571239,0.000000,0.000000
tm_1,120.669465,0.010455,120.716796,-0.007928,0.000000,0.000000
tm_2,-60.325681,-104.508050,-60.365266,-104.539849,0.000000,0.000000
